Using: /mnt/apps/public/COE/synopsys_apps/hspice/S-2021.09/hspice/linux64/hspice  -i '/afs/unity.ncsu.edu/users/m/mapatel3/Documents/546/ece546project/simulation/mylib,tri_state_buffer_tb,schematic/history_1/simulation/default/PrimeSimHSPICE/nominal/netlist/input.spi' -o hspice

>info:         ***** hspice job concluded
