Using: /mnt/apps/public/COE/synopsys_apps/hspice/S-2021.09/hspice/linux64/hspice  -i '/afs/unity.ncsu.edu/users/s/ssjoseph/ECE546/PROJECT/ece546project/simulation/mylib,sram_6T_tb,schematic/history_1/simulation/HSPICE_default/HSPICE/nominal/netlist/input.spi' -o hspice

>info:         ***** hspice job concluded
