Using: /mnt/apps/public/COE/synopsys_apps/hspice/S-2021.09/hspice/linux64/hspice  -i '/afs/unity.ncsu.edu/users/m/mapatel3/Documents/546/ece546project/simulation/mylib,column_decoder_array_tb,schematic/history_1/simulation/default/PrimeSimHSPICE/nominal/netlist/input.spi' -o hspice

2.28% Tran Time= 2.51198e-09s Estimated Time Left: 0:00:42        
5.19% Tran Time= 5.70580e-09s Estimated Time Left: 0:00:36        
7.74% Tran Time= 8.51057e-09s Estimated Time Left: 0:00:35        
10.46% Tran Time= 1.15050e-08s Estimated Time Left: 0:00:34        
13.19% Tran Time= 1.45100e-08s Estimated Time Left: 0:00:32        
15.92% Tran Time= 1.75100e-08s Estimated Time Left: 0:00:31        
18.46% Tran Time= 2.03093e-08s Estimated Time Left: 0:00:30        
21.19% Tran Time= 2.33100e-08s Estimated Time Left: 0:00:29        
23.74% Tran Time= 2.61098e-08s Estimated Time Left: 0:00:28        
26.46% Tran Time= 2.91100e-08s Estimated Time Left: 0:00:27        
29.19% Tran Time= 3.21066e-08s Estimated Time Left: 0:00:26        
31.76% Tran Time= 3.49358e-08s Estimated Time Left: 0:00:25        
34.46% Tran Time= 3.79099e-08s Estimated Time Left: 0:00:24        
37.37% Tran Time= 4.11100e-08s Estimated Time Left: 0:00:23        
40.10% Tran Time= 4.41058e-08s Estimated Time Left: 0:00:22        
42.65% Tran Time= 4.69154e-08s Estimated Time Left: 0:00:21        
45.19% Tran Time= 4.97100e-08s Estimated Time Left: 0:00:20        
48.06% Tran Time= 5.28704e-08s Estimated Time Left: 0:00:19        
51.01% Tran Time= 5.61159e-08s Estimated Time Left: 0:00:18        
54.26% Tran Time= 5.96853e-08s Estimated Time Left: 0:00:16        
57.55% Tran Time= 6.33100e-08s Estimated Time Left: 0:00:15        
60.25% Tran Time= 6.62700e-08s Estimated Time Left: 0:00:14        
63.19% Tran Time= 6.95110e-08s Estimated Time Left: 0:00:13        
66.28% Tran Time= 7.29089e-08s Estimated Time Left: 0:00:12        
69.38% Tran Time= 7.63205e-08s Estimated Time Left: 0:00:11        
72.28% Tran Time= 7.95098e-08s Estimated Time Left: 0:00:09        
75.51% Tran Time= 8.30565e-08s Estimated Time Left: 0:00:08        
78.46% Tran Time= 8.63100e-08s Estimated Time Left: 0:00:07        
81.55% Tran Time= 8.97095e-08s Estimated Time Left: 0:00:06        
84.46% Tran Time= 9.29100e-08s Estimated Time Left: 0:00:05        
87.37% Tran Time= 9.61100e-08s Estimated Time Left: 0:00:04        
90.28% Tran Time= 9.93108e-08s Estimated Time Left: 0:00:03        
>info:         ***** hspice job concluded
