Using: /mnt/apps/public/COE/synopsys_apps/hspice/S-2021.09/hspice/linux64/hspice  -i '/afs/unity.ncsu.edu/users/s/ssjoseph/ECE546/PROJECT/ece546project/simulation/new_sram,row_decoder_4_16_tb,schematic/history_1/simulation/HSPICE_default/HSPICE/nominal/netlist/input.spi' -o hspice

72.64% Tran Time= 2.90565e-09s Estimated Time Left: 0:00:00        
>info:         ***** hspice job concluded
