Using: /mnt/apps/public/COE/synopsys_apps/hspice/S-2021.09/hspice/linux64/hspice  -i '/afs/unity.ncsu.edu/users/m/mapatel3/Documents/546/ece546project/simulation/mylib,column_decoder_array_tb,schematic/history_1/simulation/column_decoder_array_tb/HSPICE/nominal/netlist/input.spi' -o hspice

2.14% Tran Time= 2.56225e-09s Estimated Time Left: 0:00:45        
4.59% Tran Time= 5.50980e-09s Estimated Time Left: 0:00:41        
>info:         ***** hspice job concluded
